192
Lattice="11.078 0.0 0.0 0.0 11.078 0.0 0.0 0.0 15.321" Properties=species:S:1:pos:R:3 pbc="T T T"
C        1.86110400       0.64252400       0.85797600
C        3.67789600       4.89647600       8.51847600
C        2.12697600       4.63060400      12.34872600
C        3.41202400       0.90839600       4.68822600
C        0.90839600       3.41202400      10.63277400
C        4.63060400       2.12697600       2.97227400
C        0.64252400       1.86110400      14.46302400
C        4.89647600       3.67789600       6.80252400
H        2.66979800       0.55943900       1.47081600
H        2.86920200       4.97956100       9.13131600
H        2.21006100       5.43929800      12.96156600
H        3.32893900       0.09970200       5.30106600
H        0.09970200       3.32893900      10.01993400
H        5.43929800       2.21006100       2.35943400
H        0.55943900       2.66979800      13.85018300
H        4.97956100       2.86920200       6.18968400
C        0.87516200       5.19558200       0.85797600
C        4.66383800       0.34341800       8.51847600
C        3.11291800       3.64466200      12.34872600
C        2.42608200       1.89433800       4.68822600
C        1.89433800       2.42608200      10.63277400
C        3.64466200       3.11291800       2.97227400
C        5.19558200       0.87516200      14.46302400
C        0.34341800       4.66383800       6.80252400
H        0.95824700       4.38688800       1.47081600
H        4.58075300       1.15211200       9.13131600
H        3.92161200       3.72774700      12.96156600
H        1.61738800       1.81125300       5.30106600
H        1.81125300       1.61738800      10.01993400
H        3.72774700       3.92161200       2.35943400
H        4.38688800       0.95824700      13.85018300
H        1.15211200       4.58075300       6.18968400
C        5.31190100       5.31190100       0.00000000
C        0.22709900       0.22709900       7.66050000
C        2.99659900       2.54240100      11.49075000
C        2.54240100       2.99659900       3.83025000
H        4.58629200       4.58629200       0.00000000
H        0.95270800       0.95270800       7.66050000
H        3.72220800       1.81679200      11.49075000
H        1.81679200       3.72220800       3.83025000
C        1.74478500       1.74478500       0.00000000
C        3.79421500       3.79421500       7.66050000
C        1.02471500       4.51428500      11.49075000
C        4.51428500       1.02471500       3.83025000
H        2.47039400       2.47039400       0.00000000
H        3.06860600       3.06860600       7.66050000
H        0.29910600       5.23989400      11.49075000
H        5.23989400       0.29910600       3.83025000
C        1.86110400       6.18152400       0.85797600
C        3.67789600      10.43547600       8.51847600
C        2.12697600      10.16960400      12.34872600
C        3.41202400       6.44739600       4.68822600
C        0.90839600       8.95102400      10.63277400
C        4.63060400       7.66597600       2.97227400
C        0.64252400       7.40010400      14.46302400
C        4.89647600       9.21689600       6.80252400
H        2.66979800       6.09843900       1.47081600
H        2.86920200      10.51856100       9.13131600
H        2.21006100      10.97829800      12.96156600
H        3.32893900       5.63870200       5.30106600
H        0.09970200       8.86793900      10.01993400
H        5.43929800       7.74906100       2.35943400
H        0.55943900       8.20879800      13.85018300
H        4.97956100       8.40820200       6.18968400
C        0.87516200      10.73458200       0.85797600
C        4.66383800       5.88241800       8.51847600
C        3.11291800       9.18366200      12.34872600
C        2.42608200       7.43333800       4.68822600
C        1.89433800       7.96508200      10.63277400
C        3.64466200       8.65191800       2.97227400
C        5.19558200       6.41416200      14.46302400
C        0.34341800      10.20283800       6.80252400
H        0.95824700       9.92588800       1.47081600
H        4.58075300       6.69111200       9.13131600
H        3.92161200       9.26674700      12.96156600
H        1.61738800       7.35025300       5.30106600
H        1.81125300       7.15638800      10.01993400
H        3.72774700       9.46061200       2.35943400
H        4.38688800       6.49724700      13.85018300
H        1.15211200      10.11975300       6.18968400
C        5.31190100      10.85090100       0.00000000
C        0.22709900       5.76609900       7.66050000
C        2.99659900       8.08140100      11.49075000
C        2.54240100       8.53559900       3.83025000
H        4.58629200      10.12529200       0.00000000
H        0.95270800       6.49170800       7.66050000
H        3.72220800       7.35579200      11.49075000
H        1.81679200       9.26120800       3.83025000
C        1.74478500       7.28378500       0.00000000
C        3.79421500       9.33321500       7.66050000
C        1.02471500      10.05328500      11.49075000
C        4.51428500       6.56371500       3.83025000
H        2.47039400       8.00939400       0.00000000
H        3.06860600       8.60760600       7.66050000
H        0.29910600      10.77889400      11.49075000
H        5.23989400       5.83810600       3.83025000
C        7.40010400       0.64252400       0.85797600
C        9.21689600       4.89647600       8.51847600
C        7.66597600       4.63060400      12.34872600
C        8.95102400       0.90839600       4.68822600
C        6.44739600       3.41202400      10.63277400
C       10.16960400       2.12697600       2.97227400
C        6.18152400       1.86110400      14.46302400
C       10.43547600       3.67789600       6.80252400
H        8.20879800       0.55943900       1.47081600
H        8.40820200       4.97956100       9.13131600
H        7.74906100       5.43929800      12.96156600
H        8.86793900       0.09970200       5.30106600
H        5.63870200       3.32893900      10.01993400
H       10.97829800       2.21006100       2.35943400
H        6.09843900       2.66979800      13.85018300
H       10.51856100       2.86920200       6.18968400
C        6.41416200       5.19558200       0.85797600
C       10.20283800       0.34341800       8.51847600
C        8.65191800       3.64466200      12.34872600
C        7.96508200       1.89433800       4.68822600
C        7.43333800       2.42608200      10.63277400
C        9.18366200       3.11291800       2.97227400
C       10.73458200       0.87516200      14.46302400
C        5.88241800       4.66383800       6.80252400
H        6.49724700       4.38688800       1.47081600
H       10.11975300       1.15211200       9.13131600
H        9.46061200       3.72774700      12.96156600
H        7.15638800       1.81125300       5.30106600
H        7.35025300       1.61738800      10.01993400
H        9.26674700       3.92161200       2.35943400
H        9.92588800       0.95824700      13.85018300
H        6.69111200       4.58075300       6.18968400
C       10.85090100       5.31190100       0.00000000
C        5.76609900       0.22709900       7.66050000
C        8.53559900       2.54240100      11.49075000
C        8.08140100       2.99659900       3.83025000
H       10.12529200       4.58629200       0.00000000
H        6.49170800       0.95270800       7.66050000
H        9.26120800       1.81679200      11.49075000
H        7.35579200       3.72220800       3.83025000
C        7.28378500       1.74478500       0.00000000
C        9.33321500       3.79421500       7.66050000
C        6.56371500       4.51428500      11.49075000
C       10.05328500       1.02471500       3.83025000
H        8.00939400       2.47039400       0.00000000
H        8.60760600       3.06860600       7.66050000
H        5.83810600       5.23989400      11.49075000
H       10.77889400       0.29910600       3.83025000
C        7.40010400       6.18152400       0.85797600
C        9.21689600      10.43547600       8.51847600
C        7.66597600      10.16960400      12.34872600
C        8.95102400       6.44739600       4.68822600
C        6.44739600       8.95102400      10.63277400
C       10.16960400       7.66597600       2.97227400
C        6.18152400       7.40010400      14.46302400
C       10.43547600       9.21689600       6.80252400
H        8.20879800       6.09843900       1.47081600
H        8.40820200      10.51856100       9.13131600
H        7.74906100      10.97829800      12.96156600
H        8.86793900       5.63870200       5.30106600
H        5.63870200       8.86793900      10.01993400
H       10.97829800       7.74906100       2.35943400
H        6.09843900       8.20879800      13.85018300
H       10.51856100       8.40820200       6.18968400
C        6.41416200      10.73458200       0.85797600
C       10.20283800       5.88241800       8.51847600
C        8.65191800       9.18366200      12.34872600
C        7.96508200       7.43333800       4.68822600
C        7.43333800       7.96508200      10.63277400
C        9.18366200       8.65191800       2.97227400
C       10.73458200       6.41416200      14.46302400
C        5.88241800      10.20283800       6.80252400
H        6.49724700       9.92588800       1.47081600
H       10.11975300       6.69111200       9.13131600
H        9.46061200       9.26674700      12.96156600
H        7.15638800       7.35025300       5.30106600
H        7.35025300       7.15638800      10.01993400
H        9.26674700       9.46061200       2.35943400
H        9.92588800       6.49724700      13.85018300
H        6.69111200      10.11975300       6.18968400
C       10.85090100      10.85090100       0.00000000
C        5.76609900       5.76609900       7.66050000
C        8.53559900       8.08140100      11.49075000
C        8.08140100       8.53559900       3.83025000
H       10.12529200      10.12529200       0.00000000
H        6.49170800       6.49170800       7.66050000
H        9.26120800       7.35579200      11.49075000
H        7.35579200       9.26120800       3.83025000
C        7.28378500       7.28378500       0.00000000
C        9.33321500       9.33321500       7.66050000
C        6.56371500      10.05328500      11.49075000
C       10.05328500       6.56371500       3.83025000
H        8.00939400       8.00939400       0.00000000
H        8.60760600       8.60760600       7.66050000
H        5.83810600      10.77889400      11.49075000
H       10.77889400       5.83810600       3.83025000
