240
Lattice="15.279600000000002 0.0 0.0 0.0 12.544 0.0 0.8520159024401384 0.0 9.900195634966279" Properties=species:S:1:pos:R:3 pbc="T T T"
O        3.35445212       2.57089280       2.95723794
O       14.89775583       5.70689280       1.99285988
O        0.34707421       2.24631680       3.67663565
O        2.62553374       5.38231680       1.27346216
C       14.76992831       2.40876160       2.77715338
C        3.48227964       5.54476160       2.17294444
C       15.27508039       2.47223424       1.33617990
C        2.97712756       5.60823424       3.61391791
H        0.15569217       3.37433600       1.09892172
H        2.81691579       0.23833600       3.85117610
H        4.46908374       2.08230400       0.70786399
H       13.78312421       5.21830400       4.24223383
N        1.28062587       1.76625792       1.17465821
N        1.69198208       4.90225792       3.77543961
H        1.62696476       1.88787200       0.35145695
H        1.34564319       5.02387200       4.59864087
H        1.89989501       2.03212800       1.74738453
H        1.07271294       5.16812800       3.20271329
H        1.16761052       0.89062400       1.31672602
H        1.80499744       4.02662400       3.63337180
O        3.35445212       8.84289280       2.95723794
O       14.89775583      11.97889280       1.99285988
O        0.34707421       8.51831680       3.67663565
O        2.62553374      11.65431680       1.27346216
C       14.76992831       8.68076160       2.77715338
C        3.48227964      11.81676160       2.17294444
C       15.27508039       8.74423424       1.33617990
C        2.97712756      11.88023424       3.61391791
H        0.15569217       9.64633600       1.09892172
H        2.81691579       6.51033600       3.85117610
H        4.46908374       8.35430400       0.70786399
H       13.78312421      11.49030400       4.24223383
N        1.28062587       8.03825792       1.17465821
N        1.69198208      11.17425792       3.77543961
H        1.62696476       8.15987200       0.35145695
H        1.34564319      11.29587200       4.59864087
H        1.89989501       8.30412800       1.74738453
H        1.07271294      11.44012800       3.20271329
H        1.16761052       7.16262400       1.31672602
H        1.80499744      10.29862400       3.63337180
O        8.44765212       2.57089280       2.95723794
O        4.71135583       5.70689280       1.99285988
O        5.44027421       2.24631680       3.67663565
O        7.71873374       5.38231680       1.27346216
C        4.58352831       2.40876160       2.77715338
C        8.57547964       5.54476160       2.17294444
C        5.08868039       2.47223424       1.33617990
C        8.07032756       5.60823424       3.61391791
H        5.24889217       3.37433600       1.09892172
H        7.91011579       0.23833600       3.85117610
H        9.56228374       2.08230400       0.70786399
H        3.59672421       5.21830400       4.24223383
N        6.37382587       1.76625792       1.17465821
N        6.78518208       4.90225792       3.77543961
H        6.72016476       1.88787200       0.35145695
H        6.43884319       5.02387200       4.59864087
H        6.99309501       2.03212800       1.74738453
H        6.16591294       5.16812800       3.20271329
H        6.26081052       0.89062400       1.31672602
H        6.89819744       4.02662400       3.63337180
O        6.32706007       2.57089280       7.90733576
O        2.59076378       5.70689280       6.94295770
O        3.31968216       2.24631680       8.62673347
O        5.59814169       5.38231680       6.22355998
C        2.46293626       2.40876160       7.72725120
C        6.45488759       5.54476160       7.12304226
C        2.96808834       2.47223424       6.28627772
C        5.94973551       5.60823424       8.56401573
H        3.12830012       3.37433600       6.04901954
H        5.78952374       0.23833600       8.80127392
H        7.44169169       2.08230400       5.65796181
H        1.47613216       5.21830400       9.19233165
N        4.25323382       1.76625792       6.12475603
N        4.66459003       4.90225792       8.72553743
H        4.59957271       1.88787200       5.30155477
H        4.31825114       5.02387200       9.54873869
H        4.87250296       2.03212800       6.69748235
H        4.04532089       5.16812800       8.15281111
H        4.14021847       0.89062400       6.26682384
H        4.77760539       4.02662400       8.58346962
O        8.44765212       8.84289280       2.95723794
O        4.71135583      11.97889280       1.99285988
O        5.44027421       8.51831680       3.67663565
O        7.71873374      11.65431680       1.27346216
C        4.58352831       8.68076160       2.77715338
C        8.57547964      11.81676160       2.17294444
C        5.08868039       8.74423424       1.33617990
C        8.07032756      11.88023424       3.61391791
H        5.24889217       9.64633600       1.09892172
H        7.91011579       6.51033600       3.85117610
H        9.56228374       8.35430400       0.70786399
H        3.59672421      11.49030400       4.24223383
N        6.37382587       8.03825792       1.17465821
N        6.78518208      11.17425792       3.77543961
H        6.72016476       8.15987200       0.35145695
H        6.43884319      11.29587200       4.59864087
H        6.99309501       8.30412800       1.74738453
H        6.16591294      11.44012800       3.20271329
H        6.26081052       7.16262400       1.31672602
H        6.89819744      10.29862400       3.63337180
O        6.32706007       8.84289280       7.90733576
O        2.59076378      11.97889280       6.94295770
O        3.31968216       8.51831680       8.62673347
O        5.59814169      11.65431680       6.22355998
C        2.46293626       8.68076160       7.72725120
C        6.45488759      11.81676160       7.12304226
C        2.96808834       8.74423424       6.28627772
C        5.94973551      11.88023424       8.56401573
H        3.12830012       9.64633600       6.04901954
H        5.78952374       6.51033600       8.80127392
H        7.44169169       8.35430400       5.65796181
H        1.47613216      11.49030400       9.19233165
N        4.25323382       8.03825792       6.12475603
N        4.66459003      11.17425792       8.72553743
H        4.59957271       8.15987200       5.30155477
H        4.31825114      11.29587200       9.54873869
H        4.87250296       8.30412800       6.69748235
H        4.04532089      11.44012800       8.15281111
H        4.14021847       7.16262400       6.26682384
H        4.77760539      10.29862400       8.58346962
O       13.54085212       2.57089280       2.95723794
O        9.80455583       5.70689280       1.99285988
O       10.53347421       2.24631680       3.67663565
O       12.81193374       5.38231680       1.27346216
C        9.67672831       2.40876160       2.77715338
C       13.66867964       5.54476160       2.17294444
C       10.18188039       2.47223424       1.33617990
C       13.16352756       5.60823424       3.61391791
H       10.34209217       3.37433600       1.09892172
H       13.00331579       0.23833600       3.85117610
H       14.65548374       2.08230400       0.70786399
H        8.68992421       5.21830400       4.24223383
N       11.46702587       1.76625792       1.17465821
N       11.87838208       4.90225792       3.77543961
H       11.81336476       1.88787200       0.35145695
H       11.53204319       5.02387200       4.59864087
H       12.08629501       2.03212800       1.74738453
H       11.25911294       5.16812800       3.20271329
H       11.35401052       0.89062400       1.31672602
H       11.99139744       4.02662400       3.63337180
O       11.42026007       2.57089280       7.90733576
O        7.68396378       5.70689280       6.94295770
O        8.41288216       2.24631680       8.62673347
O       10.69134169       5.38231680       6.22355998
C        7.55613626       2.40876160       7.72725120
C       11.54808759       5.54476160       7.12304226
C        8.06128834       2.47223424       6.28627772
C       11.04293551       5.60823424       8.56401573
H        8.22150012       3.37433600       6.04901954
H       10.88272374       0.23833600       8.80127392
H       12.53489169       2.08230400       5.65796181
H        6.56933216       5.21830400       9.19233165
N        9.34643382       1.76625792       6.12475603
N        9.75779003       4.90225792       8.72553743
H        9.69277271       1.88787200       5.30155477
H        9.41145114       5.02387200       9.54873869
H        9.96570296       2.03212800       6.69748235
H        9.13852089       5.16812800       8.15281111
H        9.23341847       0.89062400       6.26682384
H        9.87080539       4.02662400       8.58346962
O       13.54085212       8.84289280       2.95723794
O        9.80455583      11.97889280       1.99285988
O       10.53347421       8.51831680       3.67663565
O       12.81193374      11.65431680       1.27346216
C        9.67672831       8.68076160       2.77715338
C       13.66867964      11.81676160       2.17294444
C       10.18188039       8.74423424       1.33617990
C       13.16352756      11.88023424       3.61391791
H       10.34209217       9.64633600       1.09892172
H       13.00331579       6.51033600       3.85117610
H       14.65548374       8.35430400       0.70786399
H        8.68992421      11.49030400       4.24223383
N       11.46702587       8.03825792       1.17465821
N       11.87838208      11.17425792       3.77543961
H       11.81336476       8.15987200       0.35145695
H       11.53204319      11.29587200       4.59864087
H       12.08629501       8.30412800       1.74738453
H       11.25911294      11.44012800       3.20271329
H       11.35401052       7.16262400       1.31672602
H       11.99139744      10.29862400       3.63337180
O       11.42026007       8.84289280       7.90733576
O        7.68396378      11.97889280       6.94295770
O        8.41288216       8.51831680       8.62673347
O       10.69134169      11.65431680       6.22355998
C        7.55613626       8.68076160       7.72725120
C       11.54808759      11.81676160       7.12304226
C        8.06128834       8.74423424       6.28627772
C       11.04293551      11.88023424       8.56401573
H        8.22150012       9.64633600       6.04901954
H       10.88272374       6.51033600       8.80127392
H       12.53489169       8.35430400       5.65796181
H        6.56933216      11.49030400       9.19233165
N        9.34643382       8.03825792       6.12475603
N        9.75779003      11.17425792       8.72553743
H        9.69277271       8.15987200       5.30155477
H        9.41145114      11.29587200       9.54873869
H        9.96570296       8.30412800       6.69748235
H        9.13852089      11.44012800       8.15281111
H        9.23341847       7.16262400       6.26682384
H        9.87080539      10.29862400       8.58346962
O        1.23386007       2.57089280       7.90733576
O       12.77716378       5.70689280       6.94295770
O       13.50608216       2.24631680       8.62673347
O       15.78454169       5.38231680       6.22355998
C       12.64933626       2.40876160       7.72725120
C        1.36168759       5.54476160       7.12304226
C       13.15448834       2.47223424       6.28627772
C        0.85653551       5.60823424       8.56401573
H       13.31470012       3.37433600       6.04901954
H       15.97592374       0.23833600       8.80127392
H        2.34849169       2.08230400       5.65796181
H       11.66253216       5.21830400       9.19233165
N       14.43963382       1.76625792       6.12475603
N       14.85099003       4.90225792       8.72553743
H       14.78597271       1.88787200       5.30155477
H       14.50465114       5.02387200       9.54873869
H       15.05890296       2.03212800       6.69748235
H       14.23172089       5.16812800       8.15281111
H       14.32661847       0.89062400       6.26682384
H       14.96400539       4.02662400       8.58346962
O        1.23386007       8.84289280       7.90733576
O       12.77716378      11.97889280       6.94295770
O       13.50608216       8.51831680       8.62673347
O       15.78454169      11.65431680       6.22355998
C       12.64933626       8.68076160       7.72725120
C        1.36168759      11.81676160       7.12304226
C       13.15448834       8.74423424       6.28627772
C        0.85653551      11.88023424       8.56401573
H       13.31470012       9.64633600       6.04901954
H       15.97592374       6.51033600       8.80127392
H        2.34849169       8.35430400       5.65796181
H       11.66253216      11.49030400       9.19233165
N       14.43963382       8.03825792       6.12475603
N       14.85099003      11.17425792       8.72553743
H       14.78597271       8.15987200       5.30155477
H       14.50465114      11.29587200       9.54873869
H       15.05890296       8.30412800       6.69748235
H       14.23172089      11.44012800       8.15281111
H       14.32661847       7.16262400       6.26682384
H       14.96400539      10.29862400       8.58346962
