336
Lattice="10.928 0.0 0.0 0.0 17.532 0.0 -0.8615354158822781 0.0 14.987257945574317" Properties=species:S:1:pos:R:3 pbc="T T T"
C       0.17259200       8.17429400       4.86786100 
C       5.00422900       0.59170500       0.12789100 
C       4.86064000       3.79129500       2.62576800 
C       0.31618200       4.97470500       2.36998500 
C       1.20874200       8.46445000       3.81925300 
C       3.96808000       0.30155000       1.17650000 
C       3.82449100       4.08145000       3.67437600 
C       1.35233100       4.68455000       1.32137700 
O       1.18783400       0.68374800       3.08987300 
O       3.98898800       8.08225200       1.90588000 
O       3.84539900       5.06674800       4.40375600 
O       1.33142300       3.69925200       0.59199700 
O       2.14325400       7.53262400       3.75930400 
O       3.03356800       1.23337600       1.23644900 
O       2.88997900       3.14962400       3.73432500 
O       2.28684300       5.61637600       1.26142800 
H       5.06741800       7.29506500       4.52265500 
H       0.10940400       1.47093500       0.47309800 
H      -0.03418500       2.91206500       2.97097400 
H       5.21100700       5.85393500       2.02477900 
H       0.98010300       7.85433600       0.78183500 
H       4.19671900       0.91166400       4.21391800 
H       4.34030800       3.47133600       1.71604100 
H       0.83651400       5.29466300       3.27971200 
H       2.79671700       7.72021600       3.01843400 
H       2.38010400       1.04578400       1.97731900 
H       2.23651500       3.33721600       4.47519500 
H       2.94030700       5.42878400       0.52055700 
C      -0.11458647       8.17429400       9.86361365 
C       4.71705053       0.59170500       5.12364365 
C       4.57346153       3.79129500       7.62152065 
C       0.02900353       4.97470500       7.36573765 
C       0.92156353       8.46445000       8.81500565 
C       3.68090153       0.30155000       6.17225265 
C       3.53731253       4.08145000       8.67012865 
C       1.06515253       4.68455000       6.31712965 
O       0.90065553       0.68374800       8.08562565 
O       3.70180953       8.08225200       6.90163265 
O       3.55822053       5.06674800       9.39950865 
O       1.04424453       3.69925200       5.58774965 
O       1.85607553       7.53262400       8.75505665 
O       2.74638953       1.23337600       6.23220165 
O       2.60280053       3.14962400       8.73007765 
O       1.99966453       5.61637600       6.25718065 
H       4.78023953       7.29506500       9.51840765 
H      -0.17777447       1.47093500       5.46885065 
H      -0.32136347       2.91206500       7.96672665 
H       4.92382853       5.85393500       7.02053165 
H       0.69292453       7.85433600       5.77758765 
H       3.90954053       0.91166400       9.20967065 
H       4.05312953       3.47133600       6.71179365 
H       0.54933553       5.29466300       8.27546465 
H       2.50953853       7.72021600       8.01418665 
H       2.09292553       1.04578400       6.97307165 
H       1.94933653       3.33721600       9.47094765 
H       2.65312853       5.42878400       5.51630965 
C      -0.40176494       8.17429400      14.85936630 
C       4.42987206       0.59170500      10.11939630 
C       4.28628306       3.79129500      12.61727330 
C      -0.25817494       4.97470500      12.36149030 
C       0.63438506       8.46445000      13.81075830 
C       3.39372306       0.30155000      11.16800530 
C       3.25013406       4.08145000      13.66588130 
C       0.77797406       4.68455000      11.31288230 
O       0.61347706       0.68374800      13.08137830 
O       3.41463106       8.08225200      11.89738530 
O       3.27104206       5.06674800      14.39526130 
O       0.75706606       3.69925200      10.58350230 
O       1.56889706       7.53262400      13.75080930 
O       2.45921106       1.23337600      11.22795430 
O       2.31562206       3.14962400      13.72583030 
O       1.71248606       5.61637600      11.25293330 
H       4.49306106       7.29506500      14.51416030 
H      -0.46495294       1.47093500      10.46460330 
H      -0.60854194       2.91206500      12.96247930 
H       4.63665006       5.85393500      12.01628430 
H       0.40574606       7.85433600      10.77334030 
H       3.62236206       0.91166400      14.20542330 
H       3.76595106       3.47133600      11.70754630 
H       0.26215706       5.29466300      13.27121730 
H       2.22236006       7.72021600      13.00993930 
H       1.80574706       1.04578400      11.96882430 
H       1.66215806       3.33721600      14.46670030 
H       2.36595006       5.42878400      10.51206230 
C       0.17259200      16.94029400       4.86786100 
C       5.00422900       9.35770500       0.12789100 
C       4.86064000      12.55729500       2.62576800 
C       0.31618200      13.74070500       2.36998500 
C       1.20874200      17.23045000       3.81925300 
C       3.96808000       9.06755000       1.17650000 
C       3.82449100      12.84745000       3.67437600 
C       1.35233100      13.45055000       1.32137700 
O       1.18783400       9.44974800       3.08987300 
O       3.98898800      16.84825200       1.90588000 
O       3.84539900      13.83274800       4.40375600 
O       1.33142300      12.46525200       0.59199700 
O       2.14325400      16.29862400       3.75930400 
O       3.03356800       9.99937600       1.23644900 
O       2.88997900      11.91562400       3.73432500 
O       2.28684300      14.38237600       1.26142800 
H       5.06741800      16.06106500       4.52265500 
H       0.10940400      10.23693500       0.47309800 
H      -0.03418500      11.67806500       2.97097400 
H       5.21100700      14.61993500       2.02477900 
H       0.98010300      16.62033600       0.78183500 
H       4.19671900       9.67766400       4.21391800 
H       4.34030800      12.23733600       1.71604100 
H       0.83651400      14.06066300       3.27971200 
H       2.79671700      16.48621600       3.01843400 
H       2.38010400       9.81178400       1.97731900 
H       2.23651500      12.10321600       4.47519500 
H       2.94030700      14.19478400       0.52055700 
C      -0.11458647      16.94029400       9.86361365 
C       4.71705053       9.35770500       5.12364365 
C       4.57346153      12.55729500       7.62152065 
C       0.02900353      13.74070500       7.36573765 
C       0.92156353      17.23045000       8.81500565 
C       3.68090153       9.06755000       6.17225265 
C       3.53731253      12.84745000       8.67012865 
C       1.06515253      13.45055000       6.31712965 
O       0.90065553       9.44974800       8.08562565 
O       3.70180953      16.84825200       6.90163265 
O       3.55822053      13.83274800       9.39950865 
O       1.04424453      12.46525200       5.58774965 
O       1.85607553      16.29862400       8.75505665 
O       2.74638953       9.99937600       6.23220165 
O       2.60280053      11.91562400       8.73007765 
O       1.99966453      14.38237600       6.25718065 
H       4.78023953      16.06106500       9.51840765 
H      -0.17777447      10.23693500       5.46885065 
H      -0.32136347      11.67806500       7.96672665 
H       4.92382853      14.61993500       7.02053165 
H       0.69292453      16.62033600       5.77758765 
H       3.90954053       9.67766400       9.20967065 
H       4.05312953      12.23733600       6.71179365 
H       0.54933553      14.06066300       8.27546465 
H       2.50953853      16.48621600       8.01418665 
H       2.09292553       9.81178400       6.97307165 
H       1.94933653      12.10321600       9.47094765 
H       2.65312853      14.19478400       5.51630965 
C      -0.40176494      16.94029400      14.85936630 
C       4.42987206       9.35770500      10.11939630 
C       4.28628306      12.55729500      12.61727330 
C      -0.25817494      13.74070500      12.36149030 
C       0.63438506      17.23045000      13.81075830 
C       3.39372306       9.06755000      11.16800530 
C       3.25013406      12.84745000      13.66588130 
C       0.77797406      13.45055000      11.31288230 
O       0.61347706       9.44974800      13.08137830 
O       3.41463106      16.84825200      11.89738530 
O       3.27104206      13.83274800      14.39526130 
O       0.75706606      12.46525200      10.58350230 
O       1.56889706      16.29862400      13.75080930 
O       2.45921106       9.99937600      11.22795430 
O       2.31562206      11.91562400      13.72583030 
O       1.71248606      14.38237600      11.25293330 
H       4.49306106      16.06106500      14.51416030 
H      -0.46495294      10.23693500      10.46460330 
H      -0.60854194      11.67806500      12.96247930 
H       4.63665006      14.61993500      12.01628430 
H       0.40574606      16.62033600      10.77334030 
H       3.62236206       9.67766400      14.20542330 
H       3.76595106      12.23733600      11.70754630 
H       0.26215706      14.06066300      13.27121730 
H       2.22236006      16.48621600      13.00993930 
H       1.80574706       9.81178400      11.96882430 
H       1.66215806      12.10321600      14.46670030 
H       2.36595006      14.19478400      10.51206230 
C       5.63659200       8.17429400       4.86786100 
C      10.46822900       0.59170500       0.12789100 
C      10.32464000       3.79129500       2.62576800 
C       5.78018200       4.97470500       2.36998500 
C       6.67274200       8.46445000       3.81925300 
C       9.43208000       0.30155000       1.17650000 
C       9.28849100       4.08145000       3.67437600 
C       6.81633100       4.68455000       1.32137700 
O       6.65183400       0.68374800       3.08987300 
O       9.45298800       8.08225200       1.90588000 
O       9.30939900       5.06674800       4.40375600 
O       6.79542300       3.69925200       0.59199700 
O       7.60725400       7.53262400       3.75930400 
O       8.49756800       1.23337600       1.23644900 
O       8.35397900       3.14962400       3.73432500 
O       7.75084300       5.61637600       1.26142800 
H      10.53141800       7.29506500       4.52265500 
H       5.57340400       1.47093500       0.47309800 
H       5.42981500       2.91206500       2.97097400 
H      10.67500700       5.85393500       2.02477900 
H       6.44410300       7.85433600       0.78183500 
H       9.66071900       0.91166400       4.21391800 
H       9.80430800       3.47133600       1.71604100 
H       6.30051400       5.29466300       3.27971200 
H       8.26071700       7.72021600       3.01843400 
H       7.84410400       1.04578400       1.97731900 
H       7.70051500       3.33721600       4.47519500 
H       8.40430700       5.42878400       0.52055700 
C       5.34941353       8.17429400       9.86361365 
C      10.18105053       0.59170500       5.12364365 
C      10.03746153       3.79129500       7.62152065 
C       5.49300353       4.97470500       7.36573765 
C       6.38556353       8.46445000       8.81500565 
C       9.14490153       0.30155000       6.17225265 
C       9.00131253       4.08145000       8.67012865 
C       6.52915253       4.68455000       6.31712965 
O       6.36465553       0.68374800       8.08562565 
O       9.16580953       8.08225200       6.90163265 
O       9.02222053       5.06674800       9.39950865 
O       6.50824453       3.69925200       5.58774965 
O       7.32007553       7.53262400       8.75505665 
O       8.21038953       1.23337600       6.23220165 
O       8.06680053       3.14962400       8.73007765 
O       7.46366453       5.61637600       6.25718065 
H      10.24423953       7.29506500       9.51840765 
H       5.28622553       1.47093500       5.46885065 
H       5.14263653       2.91206500       7.96672665 
H      10.38782853       5.85393500       7.02053165 
H       6.15692453       7.85433600       5.77758765 
H       9.37354053       0.91166400       9.20967065 
H       9.51712953       3.47133600       6.71179365 
H       6.01333553       5.29466300       8.27546465 
H       7.97353853       7.72021600       8.01418665 
H       7.55692553       1.04578400       6.97307165 
H       7.41333653       3.33721600       9.47094765 
H       8.11712853       5.42878400       5.51630965 
C       5.06223506       8.17429400      14.85936630 
C       9.89387206       0.59170500      10.11939630 
C       9.75028306       3.79129500      12.61727330 
C       5.20582506       4.97470500      12.36149030 
C       6.09838506       8.46445000      13.81075830 
C       8.85772306       0.30155000      11.16800530 
C       8.71413406       4.08145000      13.66588130 
C       6.24197406       4.68455000      11.31288230 
O       6.07747706       0.68374800      13.08137830 
O       8.87863106       8.08225200      11.89738530 
O       8.73504206       5.06674800      14.39526130 
O       6.22106606       3.69925200      10.58350230 
O       7.03289706       7.53262400      13.75080930 
O       7.92321106       1.23337600      11.22795430 
O       7.77962206       3.14962400      13.72583030 
O       7.17648606       5.61637600      11.25293330 
H       9.95706106       7.29506500      14.51416030 
H       4.99904706       1.47093500      10.46460330 
H       4.85545806       2.91206500      12.96247930 
H      10.10065006       5.85393500      12.01628430 
H       5.86974606       7.85433600      10.77334030 
H       9.08636206       0.91166400      14.20542330 
H       9.22995106       3.47133600      11.70754630 
H       5.72615706       5.29466300      13.27121730 
H       7.68636006       7.72021600      13.00993930 
H       7.26974706       1.04578400      11.96882430 
H       7.12615806       3.33721600      14.46670030 
H       7.82995006       5.42878400      10.51206230 
C       5.63659200      16.94029400       4.86786100 
C      10.46822900       9.35770500       0.12789100 
C      10.32464000      12.55729500       2.62576800 
C       5.78018200      13.74070500       2.36998500 
C       6.67274200      17.23045000       3.81925300 
C       9.43208000       9.06755000       1.17650000 
C       9.28849100      12.84745000       3.67437600 
C       6.81633100      13.45055000       1.32137700 
O       6.65183400       9.44974800       3.08987300 
O       9.45298800      16.84825200       1.90588000 
O       9.30939900      13.83274800       4.40375600 
O       6.79542300      12.46525200       0.59199700 
O       7.60725400      16.29862400       3.75930400 
O       8.49756800       9.99937600       1.23644900 
O       8.35397900      11.91562400       3.73432500 
O       7.75084300      14.38237600       1.26142800 
H      10.53141800      16.06106500       4.52265500 
H       5.57340400      10.23693500       0.47309800 
H       5.42981500      11.67806500       2.97097400 
H      10.67500700      14.61993500       2.02477900 
H       6.44410300      16.62033600       0.78183500 
H       9.66071900       9.67766400       4.21391800 
H       9.80430800      12.23733600       1.71604100 
H       6.30051400      14.06066300       3.27971200 
H       8.26071700      16.48621600       3.01843400 
H       7.84410400       9.81178400       1.97731900 
H       7.70051500      12.10321600       4.47519500 
H       8.40430700      14.19478400       0.52055700 
C       5.34941353      16.94029400       9.86361365 
C      10.18105053       9.35770500       5.12364365 
C      10.03746153      12.55729500       7.62152065 
C       5.49300353      13.74070500       7.36573765 
C       6.38556353      17.23045000       8.81500565 
C       9.14490153       9.06755000       6.17225265 
C       9.00131253      12.84745000       8.67012865 
C       6.52915253      13.45055000       6.31712965 
O       6.36465553       9.44974800       8.08562565 
O       9.16580953      16.84825200       6.90163265 
O       9.02222053      13.83274800       9.39950865 
O       6.50824453      12.46525200       5.58774965 
O       7.32007553      16.29862400       8.75505665 
O       8.21038953       9.99937600       6.23220165 
O       8.06680053      11.91562400       8.73007765 
O       7.46366453      14.38237600       6.25718065 
H      10.24423953      16.06106500       9.51840765 
H       5.28622553      10.23693500       5.46885065 
H       5.14263653      11.67806500       7.96672665 
H      10.38782853      14.61993500       7.02053165 
H       6.15692453      16.62033600       5.77758765 
H       9.37354053       9.67766400       9.20967065 
H       9.51712953      12.23733600       6.71179365 
H       6.01333553      14.06066300       8.27546465 
H       7.97353853      16.48621600       8.01418665 
H       7.55692553       9.81178400       6.97307165 
H       7.41333653      12.10321600       9.47094765 
H       8.11712853      14.19478400       5.51630965 
C       5.06223506      16.94029400      14.85936630 
C       9.89387206       9.35770500      10.11939630 
C       9.75028306      12.55729500      12.61727330 
C       5.20582506      13.74070500      12.36149030 
C       6.09838506      17.23045000      13.81075830 
C       8.85772306       9.06755000      11.16800530 
C       8.71413406      12.84745000      13.66588130 
C       6.24197406      13.45055000      11.31288230 
O       6.07747706       9.44974800      13.08137830 
O       8.87863106      16.84825200      11.89738530 
O       8.73504206      13.83274800      14.39526130 
O       6.22106606      12.46525200      10.58350230 
O       7.03289706      16.29862400      13.75080930 
O       7.92321106       9.99937600      11.22795430 
O       7.77962206      11.91562400      13.72583030 
O       7.17648606      14.38237600      11.25293330 
H       9.95706106      16.06106500      14.51416030 
H       4.99904706      10.23693500      10.46460330 
H       4.85545806      11.67806500      12.96247930 
H      10.10065006      14.61993500      12.01628430 
H       5.86974606      16.62033600      10.77334030 
H       9.08636206       9.67766400      14.20542330 
H       9.22995106      12.23733600      11.70754630 
H       5.72615706      14.06066300      13.27121730 
H       7.68636006      16.48621600      13.00993930 
H       7.26974706       9.81178400      11.96882430 
H       7.12615806      12.10321600      14.46670030 
H       7.82995006      14.19478400      10.51206230 
